data/projects/lehighauto3mg/circuit_control.dss
clear
set defaultbasefrequency=60
new object=circuit.lehigh basekv=115 pu=1.0001 phases=3 bus1=sourcebus angle=30 mvasc3=20000 mvasc1=21000
edit object=vsource.source basekv=115 bus1=sourcebus.1.2.3 pu=1.00 r1=0 x1=0.0001 r0=0 x0=0.0001
new object=vsource.secondsource basekv=4.16 bus1=680.1.2.3 pu=1.00 r1=0 x1=0.0001 r0=0 x0=0.0001
new object=transformer.sub phases=3 windings=2 xhl=0.008 buses=[sourcebus.1.2.3,650.1.2.3] conns=[delta,wye] kvs=[115,4.16] kvas=[5000,5000] %rs=[0.0005,0.0005]
new object=transformer.reg1 phases=1 bank=reg1 xhl=0.01 kvas=[1666,1666] buses=[650.1,rg60.1] kvs=[2.4,2.4] %loadloss=0.01
new object=regcontrol.reg1 transformer=reg1 winding=2 vreg=121 band=2 ptratio=20 ctprim=700 r=3 x=9
new object=transformer.reg2 phases=1 bank=reg1 xhl=0.01 kvas=[1666,1666] buses=[650.2,rg60.2] kvs=[2.4,2.4] %loadloss=0.01
new object=regcontrol.reg2 transformer=reg2 winding=2 vreg=121 band=2 ptratio=20 ctprim=700 r=3 x=9
new object=transformer.reg3 phases=1 bank=reg1 xhl=0.01 kvas=[1666,1666] buses=[650.3,rg60.3] kvs=[2.4,2.4] %loadloss=0.01
new object=regcontrol.reg3 transformer=reg3 winding=2 vreg=121 band=2 ptratio=20 ctprim=700 r=3 x=9
new object=transformer.xfm1 phases=3 windings=2 xhl=2 buses=[633.1.2.3,634.1.2.3] conns=[wye,wye] kvs=[4.16,0.480] kvas=[500,500] %rs=[0.55,0.55] xht=1 xlt=1
new object=linecode.mtx601 nphases=3 basefreq=60 rmatrix=[0.3465|0.1560,0.3375|0.1580,0.1535,0.3414] xmatrix=[1.0179|0.5017,1.0478|0.4236,0.3849,1.0348] units=mi
new object=linecode.mtx602 nphases=3 basefreq=60 rmatrix=[0.7526|0.1580,0.7475|0.1560,0.1535,0.7436] xmatrix=[1.1814|0.4236,1.1983|0.5017,0.3849,1.2112] units=mi
new object=linecode.mtx603 nphases=2 basefreq=60 rmatrix=[1.3238|0.2066,1.3294] xmatrix=[1.3569|0.4591,1.3471] units=mi
new object=linecode.mtx604 nphases=2 basefreq=60 rmatrix=[1.3238|0.2066,1.3294] xmatrix=[1.3569|0.4591,1.3471] units=mi
new object=linecode.mtx605 nphases=1 basefreq=60 rmatrix=[1.3292] xmatrix=[1.3475] units=mi
new object=linecode.mtx606 nphases=3 units=mi rmatrix=[0.791721|0.318476,0.781649|0.28345,0.318476,0.791721] xmatrix=[0.438352|0.0276838,0.396697|-0.0184204,0.0276838,0.438352] cmatrix=[383.948|0,383.948|0,0,383.948]
new object=linecode.mtx607 nphases=1 basefreq=60 rmatrix=[1.3425] xmatrix=[0.5124] cmatrix=[236] units=mi
new object=loadshape.solar_633_shape npts=8760 interval=1 useactual=yes mult=[0.0,0.0,0.0,0.0,0.0,0.0,0.0,0.0,175.20656649591444,407.8741616380671,561.7402457563544,646.421127338765,679.7064254833842,654.5495741004667,579.7152040314166,450.1285520971045,243.8570802156713,16.28925433208176,0.0,0.0,0.0,0.0,0.0,0.0,0.0,0.0,0.0,0.0,0.0,0.0,0.0,0.0,64.72603019456326,216.75931578496787,371.6594748351185,458.5938454582324,531.9293217071279,625.684468232162,380.4270475682206,413.2041339220023,209.7443750309767,7.420921808321517,0.0,0.0,0.0,0.0,0.0,0.0,0.0,0.0,0.0,0.0,0.0,0.0,0.0,0.0,82.1530611408644,360.04194451953407,511.7523574960781,602.3265836225997,638.9075359419551,615.8975300256869,309.0685225404122,347.6889412794381,169.17127567737268,6.736196515601266,0.0,0.0,0.0,0.0,0.0,0.0,0.0,0.0,0.0,0.0,0.0,0.0,0.0,0.0,122.1429304653308,360.359668822923,521.5819531321749,450.91403718048286,367.7151335409631,240.6335023875372,563.8613496706457,261.4341476385728,142.15661968713903,5.458680045724707,0.0,0.0,0.0,0.0,0.0,0.0,0.0,0.0,0.0,0.0,0.0,0.0,0.0,0.0,79.8223474430873,271.20049260316165,342.7730402520029,451.6693678739562,437.8137934490832,362.40869639061225,368.3873557939666,281.1815956617079,136.10220657255996,10.952662791825968,0.0,0.0,0.0,0.0,0.0,0.0,0.0,0.0,0.0,0.0,0.0,0.0,0.0,0.0,65.73951188454019,86.63282672406424,230.7980229680443,139.78251308681575,293.98544380452944,312.2648878703394,258.67024038825843,139.06248509371895,94.50753532680936,16.46650330688904,0.0,0.0,0.0,0.0,0.0,0.0,0.0,0.0,0.0,0.0,0.0,0.0,0.0,0.0,191.21634111668175,446.9542509549127,626.1926800229993,731.1770271594759,768.3331193057993,744.6038208693586,664.5608315489178,523.1845486346856,297.67604693972834,30.87294695222124,0.0,0.0,0.0,0.0,0.0,0.0,0.0,0.0,0.0,0.0,0.0,0.0,0.0,0.0,53.20999514256145,315.1950120015934,429.3448227233328,461.4482158782618,298.1548398135854,303.5701269567639,335.52274816216806,203.4001855841401,135.36526270219937,7.0208245373872336,0.0,0.0,0.0,0.0,0.0,0.0,0.0,0.0,0.0,0.0,0.0,0.0,0.0,0.0,4.687904420836605,9.358892964409446,33.13011335754718,124.40745159990183,162.187224786211,115.82595351670112,49.52968862830567,24.764108841228325,56.623324985219554,1.1532215456341068,0.0,0.0,0.0,0.0,0.0,0.0,0.0,0.0,0.0,0.0,0.0,0.0,0.0,0.0,3.146353171060401,82.4590178774612,90.76618455981912,93.49111174513442,107.45994900038224,170.63854416177324,252.7592444939591,187.95598964232207,71.6188824430855,3.036032232383669,0.0,0.0,0.0,0.0,0.0,0.0,0.0,0.0,0.0,0.0,0.0,0.0,0.0,0.0,170.2619820244233,418.7451869352723,593.2935051637489,697.5489986320343,737.467527082823,717.4839922509199,640.585149682766,508.43243271483294,293.86556171783405,35.749867914657315,0.0,0.0,0.0,0.0,0.0,0.0,0.0,0.0,0.0,0.0,0.0,0.0,0.0,0.0,177.04819069889135,421.2560914995547,588.5717689883847,689.6845866502323,639.4216315161887,603.4952500996485,635.6692486553306,501.21082406905407,291.1421054783678,39.41840686212091,0.0,0.0,0.0,0.0,0.0,0.0,0.0,0.0,0.0,0.0,0.0,0.0,0.0,0.0,76.18911119600025,247.84702083114647,469.63550047392425,495.89923860823166,542.4105463543419,592.9022335679088,502.2279831236536,408.380167010131,263.5339228380533,36.95824992962978,0.0,0.0,0.0,0.0,0.0,0.0,0.0,0.0,0.0,0.0,0.0,0.0,0.0,0.0,79.0258302658413,324.3567982222337,338.7683901780376,644.3860737566416,689.8721322459828,675.3443355681062,604.1851237028403,474.15939443259487,259.25861872786766,38.776338999022336,0.0,0.0,0.0,0.0,0.0,0.0,0.0,0.0,0.0,0.0,0.0,0.0,0.0,0.0,91.7443635494195,232.0836296400905,379.6437689036159,409.7547659060431,445.2891402538186,428.43872008033446,343.8277084257525,221.5501864152361,202.4859927389723,34.49882847006317,0.0,0.0,0.0,0.0,0.0,0.0,0.0,0.0,0.0,0.0,0.0,0.0,0.0,0.0,70.63555514301356,334.9910012377463,582.2636177148493,679.4740160392384,719.6146573132297,702.9620793564393,629.7567818151823,373.1782264242348,300.1148751574087,56.17248008249397,0.0,0.0,0.0,0.0,0.0,0.0,0.0,0.0,0.0,0.0,0.0,0.0,0.0,0.0,9.314764588938752,221.0412391514741,207.1871356724501,212.1971772342227,308.95820160173554,497.9262019881855,251.84578712171577,183.57624837685583,23.91316666756847,0.377297610274424,0.0,0.0,0.0,0.0,0.0,0.0,0.0,0.0,0.0,0.0,0.0,0.0,0.0,0.0,120.63226907838408,134.0200827232678,70.87899668102688,87.70661719385109,697.8968773253283,682.2268911956852,337.1326983939239,484.2611150507609,285.5907558441546,56.82116720191316,0.0,0.0,0.0,0.0,0.0,0.0,0.0,0.0,0.0,0.0,0.0,0.0,0.0,0.0,0.0,61.64734053255793,232.11378402999543,616.6043195061425,667.6064249293202,250.9301233306989,165.22105059982113,191.7870681061028,71.77921554062901,59.2894143365739,0.0,0.0,0.0,0.0,0.0,0.0,0.0,0.0,0.0,0.0,0.0,0.0,0.0,0.0,187.4021785301649,443.3195437619766,613.8514443496957,711.6619885804864,747.2147497513746,730.9078440691046,663.7091539023335,534.7020546325365,323.1815124888643,72.6125063641006,0.0,0.0,0.0,0.0,0.0,0.0,0.0,0.0,0.0,0.0,0.0,0.0,0.0,0.0,54.78979098441226,146.60181804288683,383.5631041183379,677.5507543416409,724.8769660881098,716.2072112539677,650.0190608854756,521.6672679914183,319.71302217686787,74.23128227095053,0.0,0.0,0.0,0.0,0.0,0.0,0.0,0.0,0.0,0.0,0.0,0.0,0.0,0.0,182.69220992159296,425.11585340739134,595.3623905003998,703.6181212051035,749.0806445608604,733.228996618863,660.5598588395751,527.2862811346864,319.4739934764016,75.30727915951091,0.0,0.0,0.0,0.0,0.0,0.0,0.0,0.0,0.0,0.0,0.0,0.0,0.0,0.0,180.6380340434322,430.672351352076,611.3692232294692,723.3207053798434,770.2151945196243,753.7759037109422,681.6135067766426,549.3085469133358,342.0360963816424,86.1974267527534,0.0,0.0,0.0,0.0,0.0,0.0,0.0,0.0,0.0,0.0,0.0,0.0,0.0,0.0,49.45246397123197,170.04722393046595,567.250408906795,470.7931348571055,712.5394077794286,588.6467872266849,621.0605499557579,428.2217555676036,266.5449489910036,57.08446650888828,0.0,0.0,0.0,0.0,0.0,0.0,0.0,0.0,0.0,0.0,0.0,0.0,0.0,0.0,51.34262938722664,304.8204309284335,331.215083243304,501.6955007263072,716.8948784383861,709.2621404278052,532.5838926099432,498.1887658222361,290.1080305465045,65.84174262104729,0.0,0.0,0.0,0.0,0.0,0.0,0.0,0.0,0.0,0.0,0.0,0.0,0.0,0.0,102.26898109917973,204.14227776497225,326.43671565275247,251.7406144935106,133.69353274478462,39.93323790927899,115.66782683793112,221.672274920705,90.5528974117108,29.82636898064131,0.0,0.0,0.0,0.0,0.0,0.0,0.0,0.0,0.0,0.0,0.0,0.0,0.0,0.0,152.0531433593664,274.20637044564035,188.07881362071555,555.9631059343162,759.7795691937298,759.6192360961862,696.0096538010316,565.4970414547595,353.06230646591945,97.88409152324188,0.0,0.0,0.0,0.0,0.0,0.0,0.0,0.0,0.0,0.0,0.0,0.0,0.0,0.0,212.4884245123293,483.8463083213364,667.94547794752,776.9079981326793,816.6044137602656,797.5586069071145,717.720079059688,583.5337794554807,374.0321104895928,108.82866411289824,0.0,0.0,0.0,0.0,0.0,0.0,0.0,0.0,0.0,0.0,0.0,0.0,0.0,0.0,108.14099692847994,453.0270508926045,501.7859638960221,560.7554475104334,563.7326419088563,590.1081719276893,506.10024807120686,366.1309248615652,220.93459557741997,94.17583703785466,0.0,0.0,0.0,0.0,0.0,0.0,0.0,0.0,0.0,0.0,0.0,0.0,0.0,0.0,21.443448587058683,103.4825114246238,127.22357742785655,357.1897805182783,381.08088299811135,201.15699316437988,158.78933987496768,88.50681173571967,187.58825318006637,43.416437679765686,0.0,0.0,0.0,0.0,0.0,0.0,0.0,0.0,0.0,0.0,0.0,0.0,0.0,0.0,34.04871904026211,220.8595773391197,439.8267828434713,413.57996058642766,353.730115881376,430.99816585763466,399.5103635405217,336.6053643070491,103.63769621169574,8.116679194909441,0.0,0.0,0.0,0.0,0.0,0.0,0.0,0.0,0.0,0.0,0.0,0.0,0.0,0.0,172.343370400791,402.68392920978914,125.72836097232458,185.12147699125464,276.70403649728155,375.0426502878716,291.28258080694945,512.5356361606829,328.26215945139006,98.0753144836149,0.0,0.0,0.0,0.0,0.0,0.0,0.0,0.0,0.0,0.0,0.0,0.0,0.0,0.0,53.12909312086519,153.55203717952094,172.79421530351658,236.87744216205672,520.2455988283374,456.8691614502529,425.4997702739863,221.4097110866544,137.3024983853628,94.93852246057315,0.0,0.0,0.0,0.0,0.0,0.0,0.0,0.0,0.0,0.0,0.0,0.0,0.0,0.0,182.88122646319243,412.3399532357012,81.50658044021876,140.25615765020115,145.5162600063078,161.05974479293482,178.46250513272707,127.45157403445512,34.282599430256774,29.166649767354446,0.0,0.0,0.0,0.0,0.0,0.0,0.0,0.0,0.0,0.0,0.0,0.0,0.0,0.0,183.07244942356547,105.75144539674191,271.2380017223117,429.2058183406,724.8262184563185,716.3653379327378,648.422349166361,516.207852472769,324.5406664533616,100.40970554601456,0.0,0.0,0.0,0.0,0.0,0.0,0.0,0.0,0.0,0.0,0.0,0.0,0.0,0.0,49.28771803614137,18.62438086740592,563.2795905873571,669.54145419371,716.8316277668781,351.689913988781,651.1082962866772,531.0930889919583,346.9093399794559,111.25204739916376,0.0,0.0,0.0,0.0,0.0,0.0,0.0,0.0,0.0,0.0,0.0,0.0,0.0,0.0,73.0648222126752,282.8871573736501,389.15049192585207,381.9200576049791,140.82541369377313,137.3069112229099,221.33469284835425,3.934044673212269,50.47697775507656,9.244159188185645,0.0,0.0,0.0,0.0,0.0,0.0,0.0,0.0,0.0,0.0,0.0,0.0,0.0,0.0,190.75446412008856,435.3948230003648,606.8651870397605,714.4229539391027,764.0725246541039,753.7781101297155,683.0910718819864,559.932453307905,363.9245060880305,120.5337157064995,0.0,0.0,0.0,0.0,0.0,0.0,0.0,0.0,0.0,0.0,0.0,0.0,0.0,0.0,15.116175017485842,99.4977191196202,403.763603462972,480.71098724414367,591.3180248885109,374.8668722589133,490.43835214373337,550.2396556357675,365.80511035600654,125.0995316218672,0.0,0.0,0.0,0.0,0.0,0.0,0.0,0.0,0.0,0.0,0.0,0.0,0.0,0.0,210.6423874718053,215.9708888098915,284.21027316484646,713.4234462346916,758.5858966372476,470.9071331604048,675.424502116878,557.2075261225899,373.9291442801611,130.0617674435466,0.0,0.0,0.0,0.0,0.0,0.0,0.0,0.0,0.0,0.0,0.0,0.0,0.0,1.8982556181643049,205.19768141164636,441.1697564036294,601.7507083227072,701.6242541067528,739.2709066937255,733.4886185612155,657.9754069828415,529.1742401319076,338.95814219256147,112.72152230233786,0.0,0.0,0.0,0.0,0.0,0.0,0.0,0.0,0.0,0.0,0.0,0.0,0.0,1.8379468383543576,70.50390548952599,155.0913820105236,206.194982697284,316.96823722259074,726.4707359155263,715.3746559034207,650.1882196581132,532.6795040901297,191.3354877304527,71.58799258025601,0.0,0.0,0.0,0.0,0.0,0.0,0.0,0.0,0.0,0.0,0.0,0.0,0.0,0.0,0.0,8.594001122917437,40.03767506455964,61.09941320379684,133.21106250630507,161.1274083019899,104.1076634104586,88.76790462392125,69.2874332723839,28.1060978102088,0.0,0.0,0.0,0.0,0.0,0.0,0.0,0.0,0.0,0.0,0.0,0.0,0.0,2.1277231706119077,2.4182349757939687,118.61633779229793,227.38837049000875,579.1312385293545,828.2815173827355,823.6017031640685,750.4037603520567,618.5783288355315,416.437272898155,152.17155450021278,0.0,0.0,0.0,0.0,0.0,0.0,0.0,0.0,0.0,0.0,0.0,0.0,0.0,7.15173871795029,240.1627997158498,488.1238188502956,651.2524489798814,758.2343405793313,808.0780761464033,796.4929066394975,727.6599956344616,455.6217993702813,395.5152746145751,142.82222268382196,0.0,0.0,0.0,0.0,0.0,0.0,0.0,0.0,0.0,0.0,0.0,0.0,0.0,8.269657563207844,247.60063740143508,506.4540105478969,679.3335407106567,787.1531359711252,833.3680481286574,817.0574650817648,742.962245301849,608.8391963691495,414.1631906155653,156.6314623144508,0.0,0.0,0.0,0.0,0.0,0.0,0.0,0.0,0.0,0.0,0.0,0.0,0.0,9.544232141386356,245.6634017182717,488.6062890887752,648.83789136871,747.717077758816,789.3867672428668,775.1090313593241,708.3883985934855,585.4798408137382,396.08453065814695,150.23946712752095,0.0,0.0,0.0,0.0,0.0,0.0,0.0,0.0,0.0,0.0,0.0,0.0,0.0,8.38733323112969,230.50530474408868,470.5746993985255,631.3027459025056,734.245420200538,778.067838934634,762.4228588844244,699.755417405569,569.7686682003225,377.8161186862047,127.39567809219226,0.0,0.0,0.0,0.0,0.0,0.0,0.0,0.0,0.0,0.0,0.0,0.0,0.0,6.748699555317962,207.1363880406588,430.74148580698017,360.0492992487792,403.5069234123175,516.552789274365,723.133159784093,579.22832095539,421.94743604859553,315.484788333851,102.04098449258116,0.0,0.0,0.0,0.0,0.0,0.0,0.0,0.0,0.0,0.0,0.0,0.0,0.0,9.07647136139701,224.25525583158955,457.92162320522885,617.4618809361228,715.8247653332218,753.8354770178275,755.9161299212708,683.5632454995226,426.53090331415154,372.4920301856656,141.9565710516719,0.0,0.0,0.0,0.0,0.0,0.0,0.0,0.0,0.0,0.0,0.0,0.0,0.0,11.74182523982686,235.86101858038177,466.61197128125735,630.1281956420607,728.933099266791,568.1226797952656,461.1194594810051,392.3865727937029,563.3421057859406,196.0837009310992,142.81266153580333,0.0,0.0,0.0,0.0,0.0,0.0,0.0,0.0,0.0,0.0,0.0,0.0,0.0,0.0,4.545222673481365,19.542986550120848,45.47355544962449,215.715679705086,368.8484973176353,247.13214114852124,224.66491425054247,545.1568022544681,160.96339783982378,140.4275228416124,0.0,0.0,0.0,0.0,0.0,0.0,0.0,0.0,0.0,0.0,0.0,0.0,0.0,14.384379457596852,247.6888941523765,488.5261225400034,648.48412889202,747.0264686826997,782.6424805250958,765.0521745895533,701.2388662943087,581.2655809562871,401.40126442944097,106.5979747328547,0.0,0.0,0.0,0.0,0.0,0.0,0.0,0.0,0.0,0.0,0.0,0.0,0.0,0.0,0.0,63.04106172450732,198.86158216697936,299.01093029771687,133.81635672317807,83.53280834724805,115.023552556059,132.6653415963175,57.41469385199398,50.35415377668312,0.0,0.0,0.0,0.0,0.0,0.0,0.0,0.0,0.0,0.0,0.0,0.0,0.0,15.956085097278027,22.768035324103984,70.69880581452155,89.64679476871255,383.1674196849506,496.2824200019022,557.1523656532514,257.656023225357,234.08338052183737,371.46972282059454,88.57226882600118,0.0,0.0,0.0,0.0,0.0,0.0,0.0,0.0,0.0,0.0,0.0,0.0,0.0,19.79010545275673,240.4849368567859,395.89404317069847,621.5341945191433,718.1245891681693,754.1024536894251,741.8980159800807,684.0104130376258,146.7165518191106,386.2939150870493,153.74399561281845,0.0,0.0,0.0,0.0,0.0,0.0,0.0,0.0,0.0,0.0,0.0,0.0,0.0,0.0,19.99971523624252,90.4455183647321,116.16500653490093,160.10068809937175,174.31076047385935,110.91152343511494,221.3685246028817,138.68886484806706,130.8060660431523,63.86405592703574,0.0,0.0,0.0,0.0,0.0,0.0,0.0,0.0,0.0,0.0,0.0,0.0,0.0,28.828332222079137,212.39354850506732,408.3566318765467,721.9475774297804,827.8402336280285,755.6873978417476,675.9312429618664,584.1155385387692,464.2165359661233,278.21690430300185,71.13052842120983,0.0,0.0,0.0,0.0,0.0,0.0,0.0,0.0,0.0,0.0,0.0,0.0,0.0,43.40467011297351,310.90205654121945,551.9591913332754,702.1067243452325,788.0533548307274,824.9130513884726,809.8843976490036,740.653595791807,621.3363523024498,441.62648508975104,186.64390594499352,0.0,0.0,0.0,0.0,0.0,0.0,0.0,0.0,0.0,0.0,0.0,0.0,0.0,6.086038450333058,64.3649129886281,166.15289479517728,250.64108247136585,193.68458825134252,231.24739692492085,601.7051090013874,339.1243590735011,505.4611220998064,400.6040117792704,165.78074549537448,0.5949975959298422,0.0,0.0,0.0,0.0,0.0,0.0,0.0,0.0,0.0,0.0,0.0,0.0,49.27227310472663,299.8545177421315,541.7258210616217,699.3126627050129,788.8447236975018,828.9338818667771,812.9697065673296,721.454075097433,584.421495275366,400.20244356248713,148.5743564264268,0.2596219423525763,0.0,0.0,0.0,0.0,0.0,0.0,0.0,0.0,0.0,0.0,0.0,0.0,51.18818007307922,323.5536617886672,566.1604380326689,725.6940765072422,817.9768062374043,851.8666631259719,835.6994972993591,755.962464715515,622.9551282092996,433.4965673822004,185.23988813210096,1.5709701667566662,0.0,0.0,0.0,0.0,0.0,0.0,0.0,0.0,0.0,0.0,0.0,0.0,55.98714090551706,314.64193636236075,556.3529065843074,716.4653622504712,812.2320272240445,850.611946316755,828.6367508052746,759.2485577422325,635.9825601211727,450.12708115125554,196.72135595665077,3.5574825358623565,0.0,0.0,0.0,0.0,0.0,0.0,0.0,0.0,0.0,0.0,0.0,0.0,33.74717514121237,286.99036081950004,515.0296248477015,390.5898124391212,390.3941766412011,621.868834699796,738.2964050687476,635.358879081187,556.9273109383508,426.4551496029268,185.61424385067733,2.785235965125231,0.0,0.0,0.0,0.0,0.0,0.0,0.0,0.0,0.0,0.0,0.0,0.0,21.920035042142167,187.37790792365604,194.0692405908621,169.700816183021,181.77507518472703,119.49302151831569,281.4007665932123,92.81668307335734,141.89479132601292,60.93319632285722,7.986500487270897,0.0,0.0,0.0,0.0,0.0,0.0,0.0,0.0,0.0,0.0,0.0,0.0,0.0,56.31369088400019,235.54108785821927,540.376228245143,720.5384113064163,763.9143979753339,850.1309470241246,724.6879495465105,669.928312952003,526.0205322316021,368.5999074691504,88.02287055139107,0.0,0.0,0.0,0.0,0.0,0.0,0.0,0.0,0.0,0.0,0.0,0.0,0.0,45.92587129819909,337.8468426036246,579.4952976269877,744.0772222554083,846.9309043295748,888.8837508895625,872.4304860953148,796.8679978309983,667.9270911244072,478.14271579174937,198.4475109104793,2.251282621929848,0.0,0.0,0.0,0.0,0.0,0.0,0.0,0.0,0.0,0.0,0.0,0.0,51.954542860420254,336.9900166465686,564.9689718949602,707.8985736257608,792.5029660240222,820.8076415238492,809.7431868474974,743.7528786956988,613.6962595626237,446.9998502762325,199.98612026855756,4.934287850547974,0.0,0.0,0.0,0.0,0.0,0.0,0.0,0.0,0.0,0.0,0.0,0.0,49.25462175453836,281.28235545236595,389.1424017236825,526.9156027807327,541.5382754658713,556.07783971054,528.1342814166483,413.9594646154756,415.6135432227021,362.4484119285359,145.2375157679179,3.2184295176625333,0.0,0.0,0.0,0.0,0.0,0.0,0.0,0.0,0.0,0.0,0.0,0.0,39.96118588041043,164.77388306171812,291.31199972392994,653.0624478471043,619.4579544532472,516.6042723790807,389.3483341425457,411.786142123544,286.6130632092257,190.1197509862351,90.86326698585464,0.0,0.0,0.0,0.0,0.0,0.0,0.0,0.0,0.0,0.0,0.0,0.0,0.0,25.44956960687309,219.6710530931091,455.35850006330605,408.7287811763495,854.272395062049,878.4437127261211,889.2323650557809,811.5664242273615,678.0972107245528,479.6055714386029,215.15966217415524,7.078191425499137,0.0,0.0,0.0,0.0,0.0,0.0,0.0,0.0,0.0,0.0,0.0,0.0,69.50881062266187,362.074791682884,594.6092662257,746.7072734334616,831.0976432106902,864.237317716256,845.2466713324434,756.0352765350417,639.2399697038343,459.3410859495362,209.51490747852912,7.011263389368585,0.0,0.0,0.0,0.0,0.0,0.0,0.0,0.0,0.0,0.0,0.0,0.0,95.99686799894526,368.23364195274365,603.3437426771991,758.2556692941421,850.0368064897871,884.1311248513688,865.8266747061255,786.5978539131189,650.8508807630982,461.7321084271232,210.80272056934885,7.005379605972492,0.0,0.0,0.0,0.0,0.0,0.0,0.0,0.0,0.0,0.0,0.0,0.0,86.78212772774008,370.97474954239823,591.7181221594451,736.4672839054873,829.3192696792213,868.3493468372,859.1419612952399,792.4838437279849,664.7726477511771,480.9720801323453,223.6381940479244,8.302753844810862,0.0,0.0,0.0,0.0,0.0,0.0,0.0,0.0,0.0,0.0,0.0,0.0,87.31828748970901,347.5322855465172,556.4110089453437,693.3332678287342,774.3514942470773,810.4418861257834,795.9390955273401,652.275491817877,229.6470078411837,205.2822607979652,49.47452815896731,1.279722888650093,0.0,0.0,0.0,0.0,0.0,0.0,0.0,0.0,0.0,0.0,0.0,0.0,15.887686115298456,191.2104573332857,290.522837275929,234.17825652909931,374.275552027606,419.8829635494917,606.5040698338253,718.2415293631667,468.95518801875113,373.0811439981993,180.08642935004855,6.738402934374801,0.0,0.0,0.0,0.0,0.0,0.0,0.0,0.0,0.0,0.0,0.0,0.0,9.485394307425432,46.60765469922129,105.15644780081207,490.17873020138086,518.180390856309,510.8808220805319,494.62907686760025,475.4567686714332,458.7880103103035,342.2964537969195,10.46798613457286,0.0,0.0,0.0,0.0,0.0,0.0,0.0,0.0,0.0,0.0,0.0,0.0,0.0,91.33323418461754,110.00394984626767,78.18077187557752,194.71939865613032,390.066155716869,56.64097633540784,52.53924383540693,195.5085611041312,92.86816617807312,241.8360006191136,115.06326809398264,8.666077469519566,0.0,0.0,0.0,0.0,0.0,0.0,0.0,0.0,0.0,0.0,0.0,0.0,88.49504416892748,164.63782057068352,206.79218671198737,405.8758817021693,609.8122270482783,680.8596470290182,682.469597260774,693.7944093524029,628.6631335764338,469.3427822499687,218.7222930204892,9.30373249507108,0.0,0.0,0.0,0.0,0.0,0.0,0.0,0.0,0.0,0.0,0.0,0.0,116.95196256412828,381.0617607020741,609.4459615318715,768.7170361723942,870.7521368815792,911.563529462725,893.8033292816202,816.9978917748793,681.4274321267411,492.2718861445407,230.71050169002743,11.696961391431657,0.0,0.0,0.0,0.0,0.0,0.0,0.0,0.0,0.0,0.0,0.0,0.0,127.49349599115229,405.2529361351079,631.677101621082,784.5686841143915,876.2417067901333,907.6765550566817,885.1100393138938,804.9398131775125,672.4759911625111,486.4947463225025,229.75732877986047,11.212284734178544,0.0,0.0,0.0,0.0,0.0,0.0,0.0,0.0,0.0,0.0,0.0,0.0,121.59206124487164,373.2525091896105,582.0569498230615,723.9693924992627,800.1651229515836,824.2562740668836,803.6299358989575,703.5408965480299,618.7224815287357,371.5028191021975,175.23672088581944,9.80753144836149,0.0,0.0,0.0,0.0,0.0,0.0,0.0,0.0,0.0,0.0,0.0,0.0,71.79907330959082,249.19955553932323,556.618412310056,653.5949302444508,805.321523625334,836.176819227367,811.6407069927373,738.6192776826082,623.6060217474924,457.1420219052467,217.8581123341881,11.118879672765578,0.0,0.0,0.0,0.0,0.0,0.0,0.0,0.0,0.0,0.0,0.0,0.0,73.42888131030841,208.1778177017671,232.0998100444297,320.74489068995763,380.58076140944354,381.8994643630927,198.07241971897844,287.6905310436351,208.47862612789237,87.4646466016868,157.72878791782202,10.015670285998258,0.0,0.0,0.0,0.0,0.0,0.0,0.0,0.0,0.0,0.0,0.0,0.0,44.47184132643975,23.788871743326013,133.19120473734324,159.50789692221542,223.0034809140709,356.8713207419648,423.4588329084668,342.26777035286347,218.13832751842705,150.25491205893567,45.84717569527636,0.0,0.0,0.0,0.0,0.0,0.0,0.0,0.0,0.0,0.0,0.0,0.0,0.0,100.9929355751522,133.2448942608326,449.4967808549491,708.606098579141,786.8037863319821,383.3380494034373,347.1064467232249,344.80073910488125,311.2830315161165,209.2339568213657,30.15071254035089,12.536871471223844,0.0,0.0,0.0,0.0,0.0,0.0,0.0,0.0,0.0,0.0,0.0,0.0,130.6413201080617,386.9337765313743,587.6914078977444,720.2192160571782,800.1930709227149,831.4219867703998,808.6473321899751,741.6928190341418,620.6155888364284,452.103296899418,220.72572126685864,17.588099516769155,0.0,0.0,0.0,0.0,0.0,0.0,0.0,0.0,0.0,0.0,0.0,0.0,56.07539765645845,374.207888518551,582.3724677076768,585.7276951892985,728.5977236132139,633.0597907191637,820.836324967905,332.13515987186787,488.340047890102,233.072105250634,132.57046558905552,18.74573389995033,0.0,0.0,0.0,0.0,0.0,0.0,0.0,0.0,0.0,0.0,0.0,0.0,4.408424709522217,18.586871748255835,35.34241591447792,261.0502307719778,109.22434854628544,63.83831437467784,459.2859254801979,107.93285809084315,134.14437764751025,104.86372957685649,82.83705096066014,10.367961816839289,0.0,0.0,0.0,0.0,0.0,0.0,0.0,0.0,0.0,0.0,0.0,0.0,75.83314230053666,246.25692836835248,494.7416042250504,651.0060655501701,836.7446043250898,872.7121722254026,846.0983489790277,774.5258013301864,649.6035186831265,475.1206575449314,235.00639904209936,22.64300492693702,0.0,0.0,0.0,0.0,0.0,0.0,0.0,0.0,0.0,0.0,0.0,0.0,7.839405902368588,7.779097122558641,108.9411914703485,107.38566623500655,262.9859955092922,183.67038891119333,372.133119398504,157.78100649546235,123.94851649500664,104.36360798818863,51.17347061458897,1.3782762605346408,0.0,0.0,0.0,0.0,0.0,0.0,0.0,0.0,0.0,0.0,0.0,0.0,138.65944593108662,210.07166048238437,570.6085782801148,715.6092717663398,811.909154610184,854.0988234518643,548.1987182702478,531.0055677139413,654.893775429138,391.3120468509915,235.74040102076188,22.50914885467592,0.0,0.0,0.0,0.0,0.0,0.0,0.0,0.0,0.0,0.0,0.0,0.0,170.94891373591707,441.6308979272981,650.2021936436789,797.2658886831591,878.1230465310341,899.3348211468716,871.3140381959062,792.7824457353366,663.9400924006302,486.12700986024674,242.6692914425852,23.56087513672743,0.0,0.0,0.0,0.0,0.0,0.0,0.0,0.0,0.0,0.0,0.0,0.6839898197957395,168.16809060833893,423.2683454210183,618.0318724526193,754.6349360867717,834.4859669739149,858.1409826449798,840.3432733447248,762.87370378715,634.7219595285598,462.5161225646525,229.6411240577876,23.928611598983203,0.0,0.0,0.0,0.0,0.0,0.0,0.0,0.0,0.0,0.0,0.0,0.1323851264120785,160.81262589029893,405.4625459185937,607.4903390255953,756.8045812140807,845.3981787548927,881.4481196227508,862.1390134626245,785.8050141004954,659.3411802036594,479.1510491712547,238.64331265380895,26.26668002600541,0.0,0.0,0.0,0.0,0.0,0.0,0.0,0.0,0.0,0.0,0.0,1.7717542751483184,164.91215197152633,312.49141353108894,533.5370655201101,616.1056688633236,814.87384596889,673.8939829609694,663.6863542416736,617.2272650732036,472.3155638108444,336.8340963865722,171.27252182270217,22.424569468357088,0.0,0.0,0.0,0.0,0.0,0.0,0.0,0.0,0.0,0.0,0.0,1.7085036036403254,165.3262232280263,412.0891569684428,607.9617771702071,740.9977971204785,822.7912120012567,857.6173259227277,844.3736649710481,774.303688506984,422.6284839766933,473.30109752968986,235.2189507172832,27.32134819975498,0.0,0.0,0.0,0.0,0.0,0.0,0.0,0.0,0.0,0.0,0.0,2.3417457916447684,167.3509801892066,406.4833823378158,595.0240729551246,736.186333248324,825.6750013382665,871.6736844559923,870.281434209892,802.3325616601189,678.0935333599303,500.29516027803714,251.67000909275748,29.64470716828696,0.0,0.0,0.0,0.0,0.0,0.0,0.0,0.0,0.0,0.0,0.0,2.9235048749334025,191.0721884234776,451.1957233105707,648.5054576068309,788.6093723616581,872.225289149376,901.345604122486,872.5694904780473,793.1479757788188,662.8192316636745,480.1145187023649,241.2763057235603,30.431663197514315,0.0,0.0,0.0,0.0,0.0,0.0,0.0,0.0,0.0,0.0,0.0,2.9308596041785178,127.32875005606172,289.2666495208633,482.17752025561975,769.9526306855736,852.0622989238918,876.4086591439975,850.1611014140295,772.8150913077726,653.7089285477499,479.0914758643692,244.7587700211225,31.345856042682165,0.0,0.0,0.0,0.0,0.0,0.0,0.0,0.0,0.0,0.0,0.0,4.362825388202502,178.40293182584162,417.03668333163193,603.2606342367294,735.3375974934377,807.7721194098066,826.3722296707035,802.2810785554032,627.8798549118288,606.3054921442072,439.902536554696,224.0515298314999,32.29167422360402,0.0,0.0,0.0,0.0,0.0,0.0,0.0,0.0,0.0,0.0,0.0,3.984792305003566,58.581153910269286,288.1060732459841,190.5301448781125,451.1574787184962,578.428861886446,577.4595085719398,697.4099942493016,294.3325870248988,177.57626025869064,294.69223328498504,117.1395081598787,30.564783796850904,0.0,0.0,0.0,0.0,0.0,0.0,0.0,0.0,0.0,0.0,0.0,5.371158767707834,175.41691175232472,403.36718355666034,376.2811866927491,489.8963085983684,549.41519048739,344.6183418196024,387.20443056759456,207.3974809288604,153.30933111443213,35.29755206608272,26.81019451721945,0.6670739425319738,0.0,0.0,0.0,0.0,0.0,0.0,0.0,0.0,0.0,0.0,0.0,5.72124387977533,28.164935644169724,34.32378591402942,101.51291493278188,203.3619409920655,203.25603289093587,230.5626716322006,318.7002759598155,131.1951312202189,160.13084248927672,104.48128365611048,46.76578137799128,4.8894240021527695,0.0,0.0,0.0,0.0,0.0,0.0,0.0,0.0,0.0,0.0,0.0,8.274805873679425,29.272557868484117,91.88336793215215,180.5681641156036,249.1238018280985,216.81079888968367,219.568822356602,351.3221775265252,375.8634380716265,400.4929553676692,192.0613995069456,47.07835737090869,36.57506853595927,0.0,0.0,0.0,0.0,0.0,0.0,0.0,0.0,0.0,0.0,0.0,10.039205419582624,123.73375840104926,185.0310138215397,257.36771783894847,265.02104909141565,404.8484260266266,490.2287423602477,515.0928755192095,596.197887742645,619.4042649297579,444.0631068886578,224.057413614896,37.96952520083317,0.0,0.0,0.0,0.0,0.0,0.0,0.0,0.0,0.0,0.0,0.0,13.940889284116388,200.03392600865075,442.7245461660467,630.1384922630039,764.6285421850346,847.4913346980526,874.1956211141423,857.0201219080242,785.5299472267282,660.3605456770324,484.8627319030114,250.29246830514737,37.8761201394202,0.0,0.0,0.0,0.0,0.0,0.0,0.0,0.0,0.0,0.0,0.0,15.407422295592417,218.82305281114728,469.9745534921241,654.1266771688726,778.8422919241448,848.1738535719994,867.063740165154,844.1809710648262,765.9531289220798,636.2083503089976,461.4217388529793,238.6256613036207,37.98276371347437,0.0,0.0,0.0,0.0,0.0,0.0,0.0,0.0,0.0,0.0,0.0,16.830562404522258,218.03315489022185,462.5381867523879,637.2188901072766,765.2044174849271,833.1959474643216,845.5643956358324,811.5112637580231,747.5582156071215,636.7025881142695,470.089287268348,246.19882600731611,39.40149098485715,0.0,0.0,0.0,0.0,0.0,0.0,0.0,0.0,0.0,0.0,0.0,19.773189575492964,204.6651990143,431.9013266089349,602.6825525180633,636.7798127713431,796.0869255851669,698.5433580259739,795.1992097652816,608.9561365641468,397.2693775395351,448.81426198100246,229.46902339345192,41.29827565717243,0.0,0.0,0.0,0.0,0.0,0.0,0.0,0.0,0.0,0.0,0.0,14.994086512016924,118.69062055767358,321.86648689983764,315.7892741245988,390.02496923309633,545.4281917636129,839.8784544564336,808.9407858868552,409.90480238264354,342.08978590513175,301.7983726816156,128.10246757264784,28.67535385378073,0.0,0.0,0.0,0.0,0.0,0.0,0.0,0.0,0.0,0.0,0.0,23.529985273897942,142.07498219251826,422.1827873844393,522.9962675660106,626.7030982326105,104.66000357676678,184.5029442617404,209.99002298776355,50.2511875672515,195.0635999848017,98.81152288105096,130.627346122496,40.51058415502056,0.0,0.0,0.0,0.0,0.0,0.0,0.0,0.0,0.0,0.0,0.0,23.06075354805958,211.1572185189634,172.10581264617375,196.77872284476263,747.6729493833452,826.4413641256075,853.8141954300784,415.06340947516753,765.3250350445469,644.4544727386212,474.7992558769199,249.3003153299813,40.96142905774615,0.0,0.0,0.0,0.0,0.0,0.0,0.0,0.0,0.0,0.0,0.0,24.635401079438804,222.24373738305047,456.7345699050673,624.0973176610661,745.3687127108507,815.2695304022772,836.885815126596,816.6750191610186,747.8604949790957,632.4618512315358,465.3263646092112,244.05271601359144,42.63462996100992,0.0,0.0,0.0,0.0,0.0,0.0,0.0,0.0,0.0,0.0,0.0,19.302486903805573,123.48958139011144,300.906244024183,595.4513827242657,614.7207733464683,642.0796306653733,814.5164061275773,701.0152825252572,721.1782727507413,607.8669011629452,446.5673921966196,235.10421694105935,43.86507616371774,0.0,0.0,0.0,0.0,0.0,0.0,0.0,0.0,0.0,0.0,0.0,28.19288361530116,212.371484317332,433.8341494545512,480.0431778286873,545.2362333303154,779.7763425382744,804.4433689534673,784.6025158689192,718.5982337315548,609.0495416255598,446.1614111422893,237.0598394473356,44.92562812086339,0.0,0.0,0.0,0.0,0.0,0.0,0.0,0.0,0.0,0.0,0.0,29.80136290120792,214.44625343737903,435.5603044083798,605.1861023531005,727.0730882407014,796.2156333469565,824.4283747312195,803.0768602597248,729.8575887329021,493.7031164556402,425.9484087579384,212.66052517666503,43.77755488570086,0.0,0.0,0.0,0.0,0.0,0.0,0.0,0.0,0.0,0.0,0.0,32.03058133540242,205.0241098014616,333.6524405151352,472.32144759424045,551.8319545173349,580.7786978802604,518.7908333836535,182.85107207328747,85.74216901248076,38.4622920602559,248.9024244778205,89.02899751212284,19.41207236955779,0.0,0.0,0.0,0.0,0.0,0.0,0.0,0.0,0.0,0.0,0.0,32.76164142236689,211.0395428510416,425.8858935593549,588.2444835369771,701.7139818035432,613.429282891026,770.0673644617974,619.7028669371095,443.1319981662262,590.938520859463,438.0197258679464,234.08705788645997,46.54146213601525,0.0,0.0,0.0,0.0,0.0,0.0,0.0,0.0,0.0,0.0,0.0,30.71629121930028,176.8466711175752,373.55111119696215,537.9065101646332,587.7289170168945,602.9355552040953,683.7449073118771,780.1521692026998,709.2606694819561,525.5432103035942,397.23407483915855,170.9422944795965,40.609872999829626,0.0,0.0,0.0,0.0,0.0,0.0,0.0,0.0,0.0,0.0,0.0,35.21665004438645,207.43131268338792,361.148831270924,422.4585897311311,617.0308938023591,716.035110589632,813.7743139467452,792.9699913310869,727.1532547894731,610.854392182311,421.3421418317225,243.771765356428,50.106299401122726,0.0,0.0,0.0,0.0,0.0,0.0,0.0,0.0,0.0,0.0,0.0,37.168595186040086,202.96478561282925,289.97564542009246,515.0855207899644,590.1692161804237,554.0082189009646,636.7849610818147,783.1624598827256,595.0152472800304,607.563150845122,452.4445563363914,246.18926485929745,50.53434464318844,0.0,0.0,0.0,0.0,0.0,0.0,0.0,0.0,0.0,0.0,0.0,38.10117485432073,221.8818847041908,242.848746836166,599.3008480111592,439.77750615752905,551.3752258312132,486.3733932899581,464.2819930564048,24.71998046575763,99.76910862876498,4.904868933567513,242.79579278560115,50.52993180564137,0.0,0.0,0.0,0.0,0.0,0.0,0.0,0.0,0.0,0.0,0.0,41.78001042272749,87.07778784339372,335.4778843137729,473.466578937705,326.45289605709166,807.9199494676332,835.8517401947328,824.2915767672602,761.0386988404937,649.9646358890616,250.05785244222812,265.30052880273,55.12663758383855,0.0,0.0,0.0,0.0,0.0,0.0,0.0,0.0,0.0,0.0,0.0,43.15240289986604,252.57169889820867,494.4113768819448,680.1182903211105,813.6654639539175,891.945524674304,918.4218144837952,889.9899021680279,814.0155490659849,684.8275234567582,511.4081561674067,277.5307080644326,55.711338558825226,0.0,0.0,0.0,0.0,0.0,0.0,0.0,0.0,0.0,0.0,0.0,44.66232881388824,265.93377099073444,505.59424269914297,677.5426641394712,802.0118954650319,867.5969580354247,887.4495786867649,870.2056804986672,786.3558833209547,661.1776560961647,485.9997730443063,262.16153036091475,58.72971944102062,0.0,0.0,0.0,0.0,0.0,0.0,0.0,0.0,0.0,0.0,0.0,48.856730902377606,250.34689330156124,476.9019729680984,652.5049593703245,783.1499568430089,856.5310324132239,874.964190320257,851.8166509671051,772.7055058420204,653.9920856236869,484.27582450925127,264.5128373005781,57.34114655954282,0.0,0.0,0.0,0.0,0.0,0.0,0.0,0.0,0.0,0.0,0.0,45.73170644612804,249.48271261526017,468.1880897584856,625.9139357846095,730.6107130076019,788.9293030838206,817.59141842496,806.9572154094476,747.3147740691081,639.9857392492889,479.5680623194528,265.58295040574245,59.621848098453135,0.0,0.0,0.0,0.0,0.0,0.0,0.0,0.0,0.0,0.0,0.0,48.24996573965558,246.9821046719209,462.1858952215468,627.2149873880704,749.0710834128417,817.0537877171421,840.2005915973696,816.9721502225213,752.4652909594625,634.1107815282909,474.6727545339039,263.4434596683384,60.456609867773736,0.0,0.0,0.0,0.0,0.0,0.0,0.0,0.0,0.0,0.0,0.0,43.35318700825769,181.84862247717825,54.60812917205791,372.4677595791566,405.62949827245785,325.03343331278444,657.7996289538833,585.5452979040198,271.98891957823804,395.2122597696762,250.204211554206,141.81241835846762,42.38604011252501,0.0,0.0,0.0,0.0,0.0,0.0,0.0,0.0,0.0,0.0,0.0,48.400002216255935,225.78798140627163,451.24499999651306,607.0409650687187,717.432509146204,776.6277829484405,793.4605517717363,773.2718199938943,708.0125719290601,598.7926362203217,445.8782540663522,246.61436820966517,60.88906794738653,0.0,0.0,0.0,0.0,0.0,0.0,0.0,0.0,0.0,0.0,0.0,52.26638338041314,236.54206650847948,441.4264364542838,597.4577528623333,716.7382227054652,783.092589954897,467.159163137094,783.9538287495,721.0164687073488,609.7092608388466,452.8402407697786,250.39984735212607,59.99032003363341,0.0,0.0,0.0,0.0,0.0,0.0,0.0,0.0,0.0,0.0,0.0,49.80475550207299,232.79409648516864,439.8539953416782,598.5683169783457,715.0194224808816,558.6968587947257,494.83427381353897,533.2369925669094,239.4155592245461,91.62668788149765,363.5861885427552,101.63206154655276,62.46445095169026,0.0,0.0,0.0,0.0,0.0,0.0,0.0,0.0,0.0,0.0,0.0,52.49585093286074,260.7516287646261,485.80634366515966,652.9043211683344,770.2299039781145,838.8326119577782,857.5915843703697,833.5048460926164,761.5211690789731,643.3439086226088,480.3638440237742,267.9879468688952,63.5750150677027,0.0,0.0,0.0,0.0,0.0,0.0,0.0,0.0,0.0,0.0,0.0,44.70498624350992,166.60962348129894,353.791895607035,630.654794256011,745.7173268770691,808.6142359083723,828.7375105959326,808.1567717493259,741.3802430412245,630.9820797074186,473.47099177525206,264.8710126148153,63.397030619970906,0.0,0.0,0.0,0.0,0.0,0.0,0.0,0.0,0.0,0.0,0.0,50.38725005828614,204.8314158952396,471.3506233338852,632.4441998813475,645.6650611723671,798.0013616076706,813.1852001342115,787.3428879856493,638.353724829798,448.9996011579793,320.4227535490215,210.10107939936483,59.58580992515206,0.0,0.0,0.0,0.0,0.0,0.0,0.0,0.0,0.0,0.0,0.0,13.559178836294896,55.330363583928246,81.69633245474273,100.93777510581384,114.79040763898884,320.424959967795,486.8705729869279,412.0472350117456,284.0617076340951,173.92684360726437,44.43065484266711,6.828866104089721,0.0,0.0,0.0,0.0,0.0,0.0,0.0,0.0,0.0,0.0,0.0,0.0,49.96582407254102,191.1788319975317,332.6705841609123,445.6826182684322,599.506044957098,592.280023473772,342.1559784683377,404.7395760337989,392.6116275086035,85.63184807380402,338.9846192178439,253.38071911517136,66.8169797189496,0.0,0.0,0.0,0.0,0.0,0.0,0.0,0.0,0.0,0.0,0.0,54.34703628385631,241.81687832307628,379.72467092531207,250.4138213376918,342.9017480137924,557.5355470469219,267.89307086163325,245.92964291694489,718.7107610890051,609.6496875319613,456.2344483163994,258.76585186844494,66.43379832527908,0.0,0.0,0.0,0.0,0.0,0.0,0.0,0.0,0.0,0.0,0.0,0.0,0.0,4.200285871885449,70.50537643537501,178.28231426622173,289.82855083519013,402.04186134669055,525.3166846428445,150.11149483865591,49.09649507576837,33.67951163215731,39.80085278286691,11.111524943520465,0.0,0.0,0.0,0.0,0.0,0.0,0.0,0.0,0.0,0.0,0.0,55.29432541062719,140.49739276944098,329.8721096831459,619.0402058321247,731.5447636217316,796.5951373760045,653.9567829233104,518.7364083872396,513.562356363301,554.292111449826,469.6516808782636,266.0771882110142,67.89665397213254,0.0,0.0,0.0,0.0,0.0,0.0,0.0,0.0,0.0,0.0,0.0,58.52672891385544,259.42189371710924,474.3270822593835,641.1558766721869,759.7575050059946,831.7080857380347,858.5138674177073,832.6083045976368,758.9359817493153,575.6840769321689,483.8286569711481,219.6298666093365,66.18226658509614,0.0,0.0,0.0,0.0,0.0,0.0,0.0,0.0,0.0,0.0,0.0,61.0339561135153,264.84380011660835,475.0346072127636,628.0666650346549,735.3846677606064,797.5034464377761,821.2599573724237,805.6076225929689,748.2488246832378,638.4368332702677,482.4415550355194,278.02568134262884,73.55317623455086,0.0,0.0,0.0,0.0,0.0,0.0,0.0,0.0,0.0,0.0,0.0,59.70348559307392,259.6057619482371,467.3893661624661,621.3745968945243,726.3979240959997,555.4240042806493,809.695381107404,778.5834054547165,717.0853659258345,610.8117347526894,460.75025207290025,266.05733044205243,73.44873907927023,0.0,0.0,0.0,0.0,0.0,0.0,0.0,0.0,0.0,0.0,0.0,59.949869022785286,248.3133106652868,452.9748323149642,612.786479555003,727.4342054466366,790.4399644707674,796.9665512028828,383.4719054756984,692.8537394819525,397.07153532284144,400.9474776350173,260.48097472840584,75.02265113772494,0.0,0.0,0.0,0.0,0.0,0.0,0.0,0.0,0.0,0.0,0.0,60.73388316031459,245.69870441864825,446.6424104349198,597.5960217721414,703.4327820281268,679.030525865758,789.7758324199334,770.8131340072521,564.636538133081,492.5322435598178,455.5879676157537,264.659196412556,74.49237515915212,0.0,0.0,0.0,0.0,0.0,0.0,0.0,0.0,0.0,0.0,0.0,58.99743158554282,261.3076462955568,477.8441137843977,492.9338117766012,755.0159110616685,629.3272656272677,571.4058309302852,817.0434910961991,523.1404202592149,631.8705310002287,366.3648052515599,276.19803112521765,75.44996090686615,0.0,0.0,0.0,0.0,0.0,0.0,0.0,0.0,0.0,0.0,0.0,59.65715079882968,254.63249403269003,460.1979119065921,612.2297265511477,724.0598556689775,500.3444369639795,648.8577491376718,780.2632256143011,720.9024704040494,614.5633821406228,463.1640742111472,267.4576708903224,76.66202028646119,0.0,0.0,0.0,0.0,0.0,0.0,0.0,0.0,0.0,0.0,0.0,59.27323393223465,246.287818231182,448.3273789049758,602.95100013551,718.7740117605131,787.6503156680949,812.7181748271466,634.1563808496105,716.41461461868,605.9634972343093,365.0041803412135,265.71165816753194,76.92311317466279,0.0,0.0,0.0,0.0,0.0,0.0,0.0,0.0,0.0,0.0,0.0,61.44582095124177,243.7143984683161,439.2332561933905,590.6494800001299,564.0621337790374,761.3909903713346,221.4119175054279,527.9408520375018,291.7885861790134,434.31735516595535,384.0183618586105,234.2297396338152,73.77676000360238,0.0,0.0,0.0,0.0,0.0,0.0,0.0,0.0,0.0,0.0,0.0,60.38379804824709,248.2897755317024,446.464425987188,595.4741823849256,699.8311711167936,756.1316234881525,772.7393375965479,755.4630785997717,499.3978833101331,397.9769024929152,447.5713127385778,0.7391502891341054,0.0,0.0,0.0,0.0,0.0,0.0,0.0,0.0,0.0,0.0,0.0,0.0,62.19673880716805,241.86615500901857,432.68313432769065,577.6632345720295,682.5880084016205,739.404027293062,755.454988397602,681.4612638812688,561.6571373158846,509.05684922774327,434.5674159602893,218.03756772776893,58.82680186705615,0.0,0.0,0.0,0.0,0.0,0.0,0.0,0.0,0.0,0.0,0.0,60.92878348531016,244.8852713641385,440.2305574790281,588.4629189955571,682.1496665386115,742.906349359586,454.774534561244,628.1225609769177,681.6215969788122,579.3790929049148,438.0432610015308,257.74280903044934,81.62719799983864,0.0,0.0,0.0,0.0,0.0,0.0,0.0,0.0,0.0,0.0,0.0,62.97266274252774,184.58384628343669,423.6868295150653,562.4271774678482,658.938141041027,717.9929395146818,740.0387404269154,631.3468742779764,565.7471022490934,383.6241483710723,268.58367993774954,180.58655093871644,60.50588655371601,0.0,0.0,0.0,0.0,0.0,0.0,0.0,0.0,0.0,0.0,0.0,31.65843203559957,169.68095841405918,256.64107058953107,416.8351637503158,629.0536696993494,652.025431023543,689.413932614012,622.5726822885537,630.9585445738342,514.1441154465897,280.29387984182245,236.6663614327219,56.70128511521777,0.0,0.0,0.0,0.0,0.0,0.0,0.0,0.0,0.0,0.0,0.0,32.70059716963244,80.92629230277913,269.3603393460337,403.43043422816834,497.2400057496163,512.3635354963471,632.1728103722029,656.7765861158877,625.0585807734027,503.6217043156029,365.2704215398866,262.5020543249636,36.95824992962978,0.0,0.0,0.0,0.0,0.0,0.0,0.0,0.0,0.0,0.0,0.0,0.0,114.30499550881122,236.59722697781783,150.99847518561683,260.3971308150115,401.5101144222687,368.221138913027,755.5094133940158,652.975662042012,488.7195519191499,189.54019832172,143.93278679983442,51.514730051562346,0.0,0.0,0.0,0.0,0.0,0.0,0.0,0.0,0.0,0.0,0.0,54.82435821186431,242.35671544966772,301.92487402463155,582.9682007765313,410.96535433978914,407.3836011974179,396.14631038380594,552.8035142506146,546.2173542116136,122.80926893493825,126.25348864042584,197.2648704478648,84.04543297563262,0.0,0.0,0.0,0.0,0.0,0.0,0.0,0.0,0.0,0.0,0.0,20.48733378519368,80.64019333514415,117.7808405500528,320.7000268415623,571.3491995150978,418.4031920253744,620.1110544102135,215.88630942357267,224.04638152102828,155.20317389504936,87.55216787970367,79.93340385468855,13.68420923346186,0.0,0.0,0.0,0.0,0.0,0.0,0.0,0.0,0.0,0.0,0.0,63.63091100996557,244.01373594859228,215.1067081235904,383.9771753748379,586.1388245541006,623.0970744837304,643.3100768680812,620.5986729591646,717.0633017380993,612.0032008903981,323.672808402438,273.52164515292014,89.1268154110829,0.0,0.0,0.0,0.0,0.0,0.0,0.0,0.0,0.0,0.0,0.0,61.13471590417338,260.2426815008641,468.1836769209386,462.6308563408763,732.1096068277564,401.82048399641246,623.6324987727746,798.1808170012513,729.4596978807413,616.8793863799098,463.7296528900966,83.46220294649494,79.77380623006954,0.0,0.0,0.0,0.0,0.0,0.0,0.0,0.0,0.0,0.0,0.0,60.5117703371121,248.04192115614205,449.3776342411783,601.0711313404586,714.2251117224091,613.775690638471,795.7544918232877,776.0813265655283,713.9897603865654,460.83850882384166,347.41975818906684,273.0627100480249,76.02215884213612,0.0,0.0,0.0,0.0,0.0,0.0,0.0,0.0,0.0,0.0,0.0,58.809150516867874,247.5226772714369,447.9647907531915,598.8095520975855,709.6350252005327,773.1512024342744,574.705162469644,777.5883105878524,717.1044882218717,614.2030004076122,470.4195146114536,281.4603399000977,87.51833612517613,0.0,0.0,0.0,0.0,0.0,0.0,0.0,0.0,0.0,0.0,0.0,57.83538436481459,238.54108191730185,431.9513387678016,580.6168938368678,681.0280703287315,739.6665911271125,584.4362047338564,744.0147070568249,686.3617199772892,593.4163291421423,455.1738963592537,274.7086984530817,88.8399809705234,0.0,0.0,0.0,0.0,0.0,0.0,0.0,0.0,0.0,0.0,0.0,59.91015348486165,239.7340190008596,436.7797185172199,587.1022940852107,698.4992296505031,765.9913735141542,589.4021179201583,411.3948705277039,713.8742911374172,609.1363274306522,470.8144635719164,215.35309155330185,65.92926389906415,0.0,0.0,0.0,0.0,0.0,0.0,0.0,0.0,0.0,0.0,0.0,60.91480949974444,246.9776918343738,451.6303878089571,604.354282475478,716.2042693622698,786.5022424329325,816.533072886588,799.5142294133908,739.1730887947654,638.2250170680084,492.66095132160734,298.2791347378278,95.21726669896302,0.0,0.0,0.0,0.0,0.0,0.0,0.0,0.0,0.0,0.0,0.0,59.7976261274114,256.38218412010303,460.0236048234829,610.1806989834586,711.5347517645458,693.292816817886,380.10196853558654,787.739307891961,623.5876349243796,624.6077358706771,481.3302554465824,282.0406280375374,82.52447496774273,0.0,0.0,0.0,0.0,0.0,0.0,0.0,0.0,0.0,0.0,0.0,45.90969089385983,104.0113164573476,289.5718707845356,480.06671296227154,691.5181206510396,658.2813637194382,614.7134186172233,475.7847895957653,341.6698308652356,474.58964609343406,292.32842330560493,203.39577274659305,45.360292619249705,0.0,0.0,0.0,0.0,0.0,0.0,0.0,0.0,0.0,0.0,0.0,0.0,64.41051230994782,71.91527803166365,165.59540631839755,253.69476605393777,303.7231053250623,371.5579795715359,546.5299302045312,463.92455321509215,462.3749117631463,307.686568915255,260.613359854818,75.85888385289456,0.0,0.0,0.0,0.0,0.0,0.0,0.0,0.0,0.0,0.0,0.0,3.3265440375657302,63.20801407837144,149.15979287433797,454.98635076350325,523.71997292373,483.22704011889766,288.08180263947526,651.7268290161913,721.4106821948869,490.09047345043945,445.062614593069,274.6373575794041,95.74974909630936,0.0,0.0,0.0,0.0,0.0,0.0,0.0,0.0,0.0,0.0,0.0,56.4100378371112,234.55408319352475,430.2700476623682,588.2290386055623,710.277093063631,585.8828799763705,623.3581673719319,702.1214338037227,668.3786715000573,563.5605412445206,366.9362677139053,185.98198031293316,72.33155570693718,0.0,0.0,0.0,0.0,0.0,0.0,0.0,0.0,0.0,0.0,0.0,52.590726940122735,70.87311289763079,227.79361607141465,288.6731228707825,570.4408904533261,400.1502249848468,447.0910489188718,556.7986031765614,602.8384727780598,385.0546432092473,322.58798583878354,243.0407052694635,88.1530492590296,0.0,0.0,0.0,0.0,0.0,0.0,0.0,0.0,0.0,0.0,0.0,54.57062005290781,107.74678344094174,441.2528648440992,331.4982403192409,330.2876518854949,539.1509303529068,515.4150126601455,496.1044355541704,305.5323687193607,497.4569702623471,68.98662484625868,274.30345287167586,81.37198889503313,0.0,0.0,0.0,0.0,0.0,0.0,0.0,0.0,0.0,0.0,0.0,34.46131935091308,44.93077643133497,151.49124204503957,350.78160492700914,342.0324190170198,639.4988561732624,636.8048188507765,776.8653407030575,654.8864206998929,571.9920028511209,395.8278506074925,261.7062726206421,95.58206126952076,0.3596462600861468,0.0,0.0,0.0,0.0,0.0,0.0,0.0,0.0,0.0,0.0,45.86409157254012,207.2217028999021,348.62152094771875,252.4966806599085,349.0311793666717,309.3634471831413,332.37860140988124,264.49518595038984,239.96495749915624,370.1782323651522,395.7418002753246,292.5718648436182,93.16088440202874,0.8862448740364152,0.0,0.0,0.0,0.0,0.0,0.0,0.0,0.0,0.0,0.0,0.0,80.76963656985818,175.68388842392247,323.5808742868741,293.80966577557115,431.4247401538514,510.3637846146003,475.09491599257353,499.2507887252308,434.4056119168967,216.6791492361961,185.93417457283988,1.7107100224138605,0.0,0.0,0.0,0.0,0.0,0.0,0.0,0.0,0.0,0.0,0.0,49.05604406492024,235.2248345006793,438.0506157307759,51.98028441277816,215.06846353151585,604.7764439341477,666.8591844380165,653.7126059123726,716.0468781564242,618.0237822504497,477.0108229609261,292.4784597822052,96.29547000629694,0.8568259570559532,0.0,0.0,0.0,0.0,0.0,0.0,0.0,0.0,0.0,0.0,50.65054936526126,232.817631618753,433.4642065735218,584.4678300696103,685.0672876301488,749.7852276225426,773.6079311203962,762.9597541193178,716.8529564816888,622.3314471693137,447.8905079878158,250.32997742429745,89.98437684106337,0.3339047077282427,0.0,0.0,0.0,0.0,0.0,0.0,0.0,0.0,0.0,0.0,43.57088699391311,233.15521369110385,435.2322834840477,586.0888123952337,695.9302227251844,761.1534326167174,787.6951795164903,760.3679475333391,707.0851405712511,610.8235023194817,441.41246246871816,245.89801758119089,65.7726081661432,0.0,0.0,0.0,0.0,0.0,0.0,0.0,0.0,0.0,0.0,0.0,48.02270460598151,208.8294467128844,328.63283780534385,483.432972537761,626.1845898208298,658.6439518712225,511.2228169904298,534.6991127408384,293.69713841812086,551.6341123006413,384.5758503353902,213.22169101806733,82.07804290256422,0.0,0.0,0.0,0.0,0.0,0.0,0.0,0.0,0.0,0.0,0.0,2.4233832862655498,202.16385559803615,300.9790558437097,419.4659504012936,667.0607040193327,732.595018957934,759.1956036916678,745.6717275557494,696.3957770864002,486.9867777090008,324.50536375298515,11.653568488885476,22.15465090506136,0.0,0.0,0.0,0.0,0.0,0.0,0.0,0.0,0.0,0.0,0.0,9.272107159317082,160.06685634484424,337.3452500691077,502.9972878026926,605.2750945769666,604.7102513709417,666.4774739901949,654.3039261436797,517.1757348414262,445.78999731541086,386.67562553487073,244.64697813659677,90.1976639891717,0.0,0.0,0.0,0.0,0.0,0.0,0.0,0.0,0.0,0.0,0.0,50.23721358168578,214.40874431822897,425.704967219925,572.6921730752559,667.6189279690368,730.9865396720273,660.2163929838282,453.1042755496782,559.3984999647097,520.7927906841741,359.4476823965287,237.3084292958205,61.79958342793182,0.0,0.0,0.0,0.0,0.0,0.0,0.0,0.0,0.0,0.0,0.0,52.39729756097619,216.4114370916739,407.0239549373317,457.9753127287182,314.0756222104868,621.6871728874416,659.2315947379072,540.6888042380605,626.8626958572295,535.9016109724148,344.8404546428049,108.13437767215932,80.64901901023829,0.0,0.0,0.0,0.0,0.0,0.0,0.0,0.0,0.0,0.0,0.0,48.85893732115114,219.0539913094439,414.556668630179,564.9204306819424,676.4379838068548,741.0154484706667,500.6753997800097,747.7163422858915,702.2927989951337,609.1775139144248,471.89487329802375,290.5301920051742,97.79142193475344,0.0,0.0,0.0,0.0,0.0,0.0,0.0,0.0,0.0,0.0,0.0,42.16834012686959,222.61368026407976,422.6917346482013,575.691431661414,681.6546932604153,746.5653271590309,642.7349370411132,538.3198459482088,226.79116647530537,503.1708594128773,419.7601395710982,194.48625373906012,77.66299893672141,0.0,0.0,0.0,0.0,0.0,0.0,0.0,0.0,0.0,0.0,0.0,38.23870829120439,218.91351598086217,227.36924819397143,449.1930305371258,665.6485960042705,564.2879239668625,454.48034539143936,125.97989271250754,483.0608232379581,541.2845373069147,466.5884361476729,248.6832535463161,93.46904755739908,0.3324337618792196,0.0,0.0,0.0,0.0,0.0,0.0,0.0,0.0,0.0,0.0,45.86041420791756,218.43251668823163,414.9427919155476,569.2303020195801,481.9296658800593,551.4980498096066,671.2198034074453,575.8605904340517,347.36018488218144,45.5316578106609,216.5820668101606,214.9147496902929,87.53966483998698,0.0,0.0,0.0,0.0,0.0,0.0,0.0,0.0,0.0,0.0,0.0,20.3299425793482,155.75183669673496,288.0075198740996,490.17137547213576,588.5144021002728,567.5835781415988,400.79964757719057,654.0038531904792,560.2795965282745,464.3753981178178,257.6685262650737,223.90149335489957,62.07979861217073,0.0,0.0,0.0,0.0,0.0,0.0,0.0,0.0,0.0,0.0,0.0,38.31519747535359,168.1342588538114,286.12838655197254,376.3657660790679,334.3893843854958,743.7366982913595,601.9389893913822,771.1654255380931,623.1662089386343,502.6229320841162,365.6859637422357,247.688158679452,93.89267996191772,0.0,0.0,0.0,0.0,0.0,0.0,0.0,0.0,0.0,0.0,0.0,39.90896730277012,193.67134973870137,389.70430303800936,422.3828360199064,692.7448894891248,763.6459503578872,788.8241304556154,691.1665645931232,629.2743115767028,542.4943902677363,392.8609528300128,292.3247459409823,98.42172223105985,0.0,0.0,0.0,0.0,0.0,0.0,0.0,0.0,0.0,0.0,0.0,39.74789873230208,216.22389149592345,420.0021101632625,343.0488425986948,208.09323831544827,754.7768823612024,140.54814040123227,656.7707023324915,592.886788636494,509.4503272423569,342.7928980209647,87.99859994488219,56.48579154833589,0.0,0.0,0.0,0.0,0.0,0.0,0.0,0.0,0.0,0.0,0.0,42.14039215573815,210.86597124085685,407.9352058908016,562.7596112297275,470.1422413189128,448.06481507092514,488.51729686490927,751.8011589086286,694.0062255546623,460.3641287875317,139.78324855974026,189.97854018472887,76.7591027124967,0.0,0.0,0.0,0.0,0.0,0.0,0.0,0.0,0.0,0.0,0.0,42.3345570078092,210.56295639595805,406.6503346916799,559.8875894595099,662.3257293313272,729.7480032671498,754.5738918340371,739.3209188525922,688.6858144187456,594.0458939655242,459.908871047259,207.0054738600957,4.050249395285093,0.0,0.0,0.0,0.0,0.0,0.0,0.0,0.0,0.0,0.0,0.0,43.275226878259474,135.22993568408927,244.8028983965932,367.8916470428458,512.1973186154075,440.2224672768585,605.0993165480082,761.7271014978364,707.0748439503078,223.2248582643489,49.74518219518755,152.02960822578206,76.09497066166277,0.0,0.0,0.0,0.0,0.0,0.0,0.0,0.0,0.0,0.0,0.0,43.00898567958629,97.28835845438752,188.69293351268269,352.77179466073744,333.78850300616983,559.482343878104,623.3030069025936,645.0112257424764,649.2409305313424,605.8568536602552,463.3883934531232,229.3778247508125,89.33421877579515,0.0,0.0,0.0,0.0,0.0,0.0,0.0,0.0,0.0,0.0,0.0,41.26959221311648,99.10644752378008,415.7429864574162,443.82040082356895,591.6945870258608,666.5642597952873,641.860459733869,679.9182416856436,724.8232765646205,456.6279263310131,362.60653860730577,90.28297884841504,71.32248685450735,0.0,0.0,0.0,0.0,0.0,0.0,0.0,0.0,0.0,0.0,0.0,38.73515251524969,210.81228171736748,417.1374431222901,581.1780596782702,683.7809454851781,756.0168897119289,783.767018626674,774.5978776767885,711.9914804506676,609.3003378928182,304.8954491667337,70.40829400933949,26.351994885248757,0.0,0.0,0.0,0.0,0.0,0.0,0.0,0.0,0.0,0.0,0.0,33.687601834326934,176.9746434064402,384.8590074113272,382.23557548959457,480.36090213207615,749.5719404744341,777.0727440677699,757.2429230770895,698.485991137862,601.3829718604514,468.3815191376322,285.9092156204681,90.43742816256248,0.0,0.0,0.0,0.0,0.0,0.0,0.0,0.0,0.0,0.0,0.0,37.070777287080055,207.67548969432573,409.3885003896364,563.0008463489673,676.3386949620457,745.5194846603755,343.6739945845296,736.0811606201188,433.1001474758887,507.0041442954315,387.1845727986328,269.88693795998404,93.9802012399346,0.0,0.0,0.0,0.0,0.0,0.0,0.0,0.0,0.0,0.0,0.0,37.60178873857739,195.1981915299873,381.7847305868689,532.6986263861669,638.9810832344061,707.0321865206863,554.5311401502922,717.1184622074375,588.9078801148866,566.1707346536119,429.7029980375698,261.48563074328865,50.39975309800284,0.0,0.0,0.0,0.0,0.0,0.0,0.0,0.0,0.0,0.0,0.0,33.37429036848501,189.4504706249296,371.91027110237695,522.640298670547,636.2517432115438,702.0317061069321,547.2455453600809,326.16973898115475,657.3465776323841,564.0253601328119,430.5311405505698,250.94703920796263,0.0,0.0,0.0,0.0,0.0,0.0,0.0,0.0,0.0,0.0,0.0,0.0,36.08450809531007,194.74587568141277,216.0731195463986,282.0009124996137,663.2362448118726,736.2473775010585,761.6837085952902,748.4187189288,690.9069426507705,590.3310202238164,448.8297069124171,231.8387171562281,71.50782603148426,0.0,0.0,0.0,0.0,0.0,0.0,0.0,0.0,0.0,0.0,0.0,24.58024061010044,127.4677544387944,134.82101273806086,383.3277527824942,539.7599019344024,242.60383435230364,133.28240337998267,294.29287148697523,536.3340690520275,218.03756772776893,17.509403913846416,101.92625071635736,39.16540417608894,0.0,0.0,0.0,0.0,0.0,0.0,0.0,0.0,0.0,0.0,0.0,35.208559842216815,198.2224561955788,402.04186134669055,558.7902638561386,671.1940618550875,741.3427339220744,766.9342498033783,745.6893789059376,529.1154022979467,594.6967875037169,453.890496105981,271.98891957823804,79.55610624441412,0.0,0.0,0.0,0.0,0.0,0.0,0.0,0.0,0.0,0.0,0.0,34.40983624619727,193.5882412982316,386.6579741846825,536.7400501063579,270.0369744365844,545.4098049405001,661.9094516560536,648.26569343344,484.2044836355735,524.3495377471119,412.00016474457686,200.53404759731865,53.62185998028792,0.0,0.0,0.0,0.0,0.0,0.0,0.0,0.0,0.0,0.0,0.0,32.48657454859958,190.4007016433985,169.75229928773678,93.74999821456248,381.5552630344214,647.0514276350714,600.528352322169,609.7077898929975,539.5716208657274,454.8260176659598,75.75885953516101,91.67964193206248,51.364693574961976,0.0,0.0,0.0,0.0,0.0,0.0,0.0,0.0,0.0,0.0,0.0,30.92884289448412,191.87311843827064,390.865614785813,549.7696884370046,667.8836982218611,740.2071637266286,634.8072743878033,496.66192403095016,584.0861196217888,616.9558755640588,473.6901627067565,268.644724190484,71.73214527346028,0.0,0.0,0.0,0.0,0.0,0.0,0.0,0.0,0.0,0.0,0.0,31.28039895240064,189.03566389550508,389.5976594639552,548.1692993532673,154.0264172158309,540.0460009020373,772.2745187082567,298.9800404348873,509.4900427802807,421.4083343949286,429.71844296898456,225.61808716070948,65.78878857048245,0.0,0.0,0.0,0.0,0.0,0.0,0.0,0.0,0.0,0.0,0.0,30.55301623005872,189.54314021341804,393.1772061875528,556.1771285553491,374.8889364466487,141.69694910931932,248.6832535463161,245.19637641120687,416.3607837140059,454.7090774709624,427.6517640511072,263.0573363829698,80.83950649768678,0.0,0.0,0.0,0.0,0.0,0.0,0.0,0.0,0.0,0.0,0.0,21.48610601668036,57.06093137530392,139.47802729606798,480.0196426951029,240.0421821562299,520.988426482094,533.1009300758748,579.2731848037853,87.2042891864097,108.76614891431475,55.57527606779059,106.71491492785204,42.95676710194597,0.0,0.0,0.0,0.0,0.0,0.0,0.0,0.0,0.0,0.0,0.0,27.85677248879938,164.24360708314532,184.4830864927786,45.80672468442822,529.2889739081314,402.6684842783744,672.0964871334631,687.1883915444402,497.5753814031935,480.9522223633836,387.1088190874081,253.48368532460296,77.85275095124538,0.0,0.0,0.0,0.0,0.0,0.0,0.0,0.0,0.0,0.0,0.0,14.28288419401426,92.80712192533868,324.8907515654291,296.5191480294717,461.8894996329687,582.604141678898,239.31185754219,214.42639566841723,274.96758492250984,492.5896104479297,463.90028260858327,271.15415780891743,81.01749094541856,0.0,0.0,0.0,0.0,0.0,0.0,0.0,0.0,0.0,0.0,0.0,25.5650388560214,187.56545351940647,395.4417273221239,553.5522256877674,663.9636275342145,570.8998255582212,758.7609391932814,516.9300868846394,389.3998172472616,461.5151439143924,448.7105602986462,264.2738086001119,70.54729839207218,0.0,0.0,0.0,0.0,0.0,0.0,0.0,0.0,0.0,0.0,0.0,25.534884466116427,188.0302724076978,396.4132870554036,559.1256395097159,675.8959402614898,563.2214882263207,558.0364041085143,346.5173329106912,235.8492510135896,282.9239310198757,385.9004370724356,261.45915371800623,76.93929357900204,0.0,0.0,0.0,0.0,0.0,0.0,0.0,0.0,0.0,0.0,0.0,25.80553850233668,183.24455008790116,386.12034347686455,548.8577020106102,672.1759182093105,741.6148589041437,527.6797591493003,750.6236667564857,478.0235691779785,530.2862751937691,316.16510078902417,146.9901477470289,49.02294778331722,0.0,0.0,0.0,0.0,0.0,0.0,0.0,0.0,0.0,0.0,0.0,24.90017133226296,182.7201578927244,388.4319348786044,549.930021534548,667.3512158245146,621.2517729161308,642.9379275
...